#
# config.in 1.15 2000/03/31 03:27:12 (David Hinds)
#
LINUX=/usr/src/linux
MODPATH=/lib/modules
CC=cc
LD=ld
PCDEBUG=
# UNSAFE_TOOLS is not set
CONFIG_CARDBUS=y
CONFIG_PNP=n
USE_PM=y
CONF_SRC=1
SYSV_INIT=n
RC_DIR=/etc
