#
# config.in 1.13 1999/11/03 18:20:33 (David Hinds)
#
LINUX=/usr/src/linux
MODPATH=/lib/modules
CC=gcc
LD=ld
PCDEBUG=
# UNSAFE_TOOLS is not set
CONFIG_CARDBUS=y
CONFIG_PNP=n
USE_APM=y
CONF_SRC=1
SYSV_INIT=n
RC_DIR=/etc
