#
# config.in 1.11 1999/02/16 03:24:20 (David Hinds)
#
LINUX=/usr/src/linux
MODPATH=/lib/modules
CC=gcc
LD=ld
PCDEBUG=
# UNSAFE_TOOLS is not set
CONF_SRC=1
SYSV_INIT=n
RC_DIR=/etc
