#
# config.in 1.12 1999/09/25 04:32:46 (David Hinds)
#
LINUX=/usr/src/linux
MODPATH=/lib/modules
CC=gcc
LD=ld
PCDEBUG=
# UNSAFE_TOOLS is not set
CONFIG_CARDBUS=y
CONFIG_PNP=n
CONF_SRC=1
SYSV_INIT=n
RC_DIR=/etc
