#
# config.in 1.10 1998/03/22 12:44:59 (David Hinds)
#
LINUX=/usr/src/linux
MODPATH=/lib/modules
CC=gcc
LD=ld
PCDEBUG=
# UNSAFE_TOOLS is not set
SYSV_INIT=n
RC_DIR=/etc
