#
# config.in 1.14 2000/02/12 00:09:48 (David Hinds)
#
LINUX=/usr/src/linux
MODPATH=/lib/modules
CC=cc
LD=ld
PCDEBUG=
# UNSAFE_TOOLS is not set
CONFIG_CARDBUS=y
CONFIG_PNP=n
USE_APM=y
CONF_SRC=1
SYSV_INIT=n
RC_DIR=/etc
